Version 4
SHEET 1 952 680
WIRE 32 -160 -80 -160
WIRE 496 -160 384 -160
WIRE -80 -96 -80 -160
WIRE 32 -96 32 -160
WIRE 384 -96 384 -160
WIRE 496 -96 496 -160
WIRE 32 16 32 -16
WIRE 384 16 384 -16
WIRE 32 128 32 96
WIRE 112 128 32 128
WIRE 384 128 384 96
WIRE 384 128 304 128
WIRE 528 128 384 128
WIRE 112 224 32 224
WIRE 384 224 304 224
WIRE 32 352 32 224
WIRE 384 352 384 224
FLAG 32 352 0
FLAG 384 352 0
FLAG -80 -96 0
FLAG 496 -96 0
DATAFLAG 480 128 ""
SYMBOL res 16 0 R0
SYMATTR InstName R1
SYMATTR Value 2.2k
SYMBOL res 368 0 R0
SYMATTR InstName R2
SYMATTR Value 10k
SYMBOL voltage 32 0 R180
WINDOW 0 24 96 Left 2
WINDOW 3 24 16 Left 2
WINDOW 123 0 0 Left 0
WINDOW 39 0 0 Left 0
SYMATTR InstName V1
SYMATTR Value 24
SYMBOL voltage 384 0 R180
WINDOW 0 24 96 Left 2
WINDOW 3 24 16 Left 2
WINDOW 123 0 0 Left 0
WINDOW 39 0 0 Left 0
SYMATTR InstName V2
SYMATTR Value 3.3
SYMBOL Optos\\4N27 208 192 R0
SYMATTR InstName U1
TEXT -104 376 Left 2 !.tran 0.01
